% Case saved by PowerWorld Simulator, version 22, build date March 16, 2022
function mpc = case2746wop_TAMU_Updated
mpc.version = '2';
mpc.baseMVA =  100.00;

%% bus data 
mpc.bus = [
1	1	0.00	0.00	0.00	0.00	1	1.0807692	-5.842457	220.00	1	1.100	0.900
2	1	0.00	0.00	0.00	0.00	1	1.0828089	-2.404548	220.00	1	1.100	0.900
3	1	0.00	0.00	0.00	0.00	1	1.0633664	-23.485660	220.00	1	1.100	0.900
4	1	0.00	0.00	0.00	0.00	1	1.0707684	-8.914048	220.00	1	1.100	0.900
5	1	0.00	0.00	0.00	0.00	1	1.0707810	-8.920646	220.00	1	1.100	0.900
6	1	0.00	0.00	0.00	0.00	1	1.0576742	-17.448493	220.00	1	1.100	0.900
7	1	0.00	0.00	0.00	0.00	1	1.0577513	-17.445232	220.00	1	1.100	0.900
8	1	0.00	0.00	0.00	-50.00	1	1.0185816	-15.181525	400.00	1	1.100	0.900
9	1	0.00	0.00	0.00	0.00	1	1.0186167	-15.184226	400.00	1	1.100	0.900
10	1	0.00	0.00	0.00	0.00	1	1.0508189	-17.414427	220.00	1	1.100	0.900
11	1	0.00	0.00	0.00	0.00	1	1.0507480	-17.428382	220.00	1	1.100	0.900
12	1	0.00	0.00	0.00	0.00	1	1.0507873	-17.420836	220.00	1	1.100	0.900
13	1	0.00	0.00	0.00	-50.00	1	1.0095451	-13.383999	400.00	1	1.100	0.900
14	1	0.00	0.00	0.00	0.00	1	1.0096457	-13.378400	400.00	1	1.100	0.900
15	1	0.00	0.00	0.00	0.00	1	1.0281327	-16.549107	400.00	1	1.100	0.900
16	1	0.00	0.00	0.00	0.00	1	1.0281327	-16.549107	400.00	1	1.100	0.900
17	2	2.30	31.00	0.00	0.00	1	1.0908800	-19.427206	220.00	1	1.100	0.900
18	2	9.70	40.00	0.00	0.00	1	1.0909100	-19.428658	220.00	1	1.100	0.900
19	1	0.00	0.00	0.00	0.00	1	1.0741914	-8.094314	220.00	1	1.100	0.900
20	1	0.00	0.00	0.00	0.00	1	1.0741878	-8.090384	220.00	1	1.100	0.900
21	1	0.00	0.00	0.00	0.00	1	1.0696173	-19.167257	220.00	1	1.100	0.900
22	1	0.00	0.00	0.00	0.00	1	1.0696173	-19.167257	220.00	1	1.100	0.900
23	1	0.00	0.00	0.00	0.00	1	1.0513911	-17.347989	220.00	1	1.100	0.900
24	1	0.00	0.00	0.00	0.00	1	1.0768614	-5.979081	220.00	1	1.100	0.900
25	1	0.00	0.00	0.00	-50.00	1	1.0106515	-18.092129	400.00	1	1.100	0.900
26	2	28.57	42.05	0.00	0.00	1	1.0909100	-5.652584	220.00	1	1.100	0.900
27	2	85.00	122.06	0.00	0.00	1	1.0909100	-2.180448	220.00	1	1.100	0.900
28	3	44.78	80.00	0.00	0.00	1	1.0325000	-4.410000	400.00	1	1.100	0.900
29	2	60.10	90.00	0.00	0.00	1	1.0324889	-4.400697	400.00	1	1.100	0.900
30	1	0.00	0.00	0.00	0.00	1	1.0567686	-18.616588	220.00	1	1.100	0.900
31	1	0.00	0.00	0.00	0.00	1	1.0331551	-5.456010	400.00	1	1.100	0.900
32	1	0.00	0.00	0.00	0.00	1	1.0486453	-17.569259	220.00	1	1.100	0.900
33	1	0.00	0.00	0.00	0.00	1	1.0768655	-5.978155	220.00	1	1.100	0.900
34	1	0.00	0.00	0.00	0.00	1	1.0715968	-11.888018	220.00	1	1.100	0.900
35	1	0.00	0.00	0.00	0.00	1	1.0909195	-15.145922	220.00	2	1.100	0.900
36	1	0.00	0.00	0.00	0.00	1	1.0815557	-15.550118	220.00	2	1.100	0.900
37	1	0.00	0.00	0.00	0.00	1	1.0898707	-14.569638	220.00	2	1.100	0.900
38	1	0.00	0.00	0.00	0.00	1	1.0898494	-14.572500	220.00	2	1.100	0.900
39	1	0.00	0.00	0.00	0.00	1	1.0855469	-16.204890	220.00	2	1.100	0.900
40	1	0.00	0.00	0.00	0.00	1	1.1029120	-13.811252	220.00	2	1.100	0.900
41	1	0.00	0.00	0.00	0.00	1	1.1028265	-13.814313	220.00	2	1.100	0.900
42	1	0.00	0.00	0.00	0.00	1	1.0215639	-13.876135	400.00	2	1.100	0.900
43	2	12.00	0.00	0.00	0.00	1	1.0909949	-13.754589	220.00	2	1.100	0.900
44	2	24.00	0.00	0.00	0.00	1	1.0909600	-13.738987	220.00	2	1.100	0.900
45	2	20.00	0.00	0.00	0.00	1	1.0325000	-13.607627	400.00	2	1.100	0.900
46	1	0.00	0.00	0.00	0.00	1	1.0324538	-13.609594	400.00	2	1.100	0.900
47	1	0.00	0.00	0.00	0.00	1	1.1016440	-14.248797	220.00	2	1.100	0.900
48	1	0.00	0.00	0.00	0.00	1	1.0261382	-17.596288	400.00	2	1.100	0.900
49	1	0.00	0.00	0.00	0.00	1	1.0261157	-17.601981	400.00	2	1.100	0.900
50	1	0.00	0.00	0.00	0.00	1	1.0280122	-14.109465	400.00	2	1.100	0.900
51	1	0.00	0.00	0.00	0.00	1	1.0861725	-15.320061	220.00	2	1.100	0.900
52	1	0.00	0.00	0.00	0.00	1	1.0861780	-15.316911	220.00	2	1.100	0.900
53	1	0.00	0.00	0.00	0.00	1	1.0349850	-14.375408	400.00	2	1.100	0.900
54	1	0.00	0.00	0.00	0.00	1	1.0350055	-14.375702	400.00	2	1.100	0.900
55	2	12.00	0.00	0.00	0.00	1	1.0917315	-13.677402	220.00	2	1.100	0.900
56	2	12.00	0.00	0.00	0.00	1	1.0917118	-13.677351	220.00	2	1.100	0.900
57	2	12.00	0.00	0.00	0.00	1	1.0370636	-14.001355	400.00	2	1.100	0.900
58	2	12.00	0.00	0.00	0.00	1	1.0370504	-14.006141	400.00	2	1.100	0.900
59	2	170.73	62.00	0.00	0.00	1	1.0844010	-14.798719	220.00	2	1.100	0.900
60	1	0.00	0.00	0.00	0.00	1	1.0844745	-14.794690	220.00	2	1.100	0.900
61	1	0.00	0.00	0.00	0.00	1	1.0977696	-14.381888	220.00	2	1.100	0.900
62	1	0.00	0.00	0.00	0.00	1	1.0902278	-14.564088	220.00	2	1.100	0.900
63	1	0.00	0.00	0.00	0.00	1	1.0902008	-14.565915	220.00	2	1.100	0.900
64	1	0.00	0.00	0.00	0.00	1	1.0367486	-15.240286	400.00	2	1.100	0.900
65	1	0.00	0.00	0.00	0.00	1	1.0367113	-15.251238	400.00	2	1.100	0.900
66	1	0.00	0.00	0.00	0.00	1	1.0888875	-15.334540	220.00	2	1.100	0.900
67	1	0.00	0.00	0.00	0.00	1	1.0898921	-15.177804	220.00	2	1.100	0.900
68	1	0.00	0.00	0.00	0.00	1	1.0862827	-14.635790	220.00	2	1.100	0.900
69	1	0.00	0.00	0.00	0.00	1	1.0846152	-9.408718	220.00	3	1.100	0.900
70	1	6.80	0.00	0.00	0.00	1	1.0951868	-14.823342	220.00	3	1.100	0.900
71	1	11.33	2.43	0.00	0.00	1	1.0950560	-14.831197	220.00	3	1.100	0.900
72	1	0.00	0.00	0.00	0.00	1	1.0875756	-13.585092	220.00	3	1.100	0.900
73	1	0.00	0.00	0.00	0.00	1	1.0876091	-13.569385	220.00	3	1.100	0.900
74	1	0.00	0.00	0.00	0.00	1	1.0878540	-10.943293	220.00	3	1.100	0.900
75	1	0.00	0.00	0.00	0.00	1	1.0878361	-10.948461	220.00	3	1.100	0.900
76	1	0.00	0.00	0.00	0.00	1	1.0857137	-18.030129	220.00	3	1.100	0.900
77	1	0.00	0.00	0.00	0.00	1	1.0856847	-18.042410	220.00	3	1.100	0.900
78	2	27.00	70.00	0.00	0.00	1	1.0909100	-12.507303	220.00	3	1.100	0.900
79	2	9.00	21.00	0.00	0.00	1	1.0903400	-13.073292	220.00	3	1.100	0.900
80	1	10.09	1.38	0.00	0.00	1	1.0817620	-12.842772	220.00	3	1.100	0.900
81	1	0.00	0.00	0.00	0.00	1	1.0817909	-12.846358	220.00	3	1.100	0.900
82	2	35.00	108.00	0.00	0.00	1	1.0311865	-6.635393	400.00	3	1.100	0.900
83	1	0.00	0.00	0.00	0.00	1	1.0884187	-10.552870	220.00	3	1.100	0.900
84	1	0.00	0.00	0.00	0.00	1	1.0885131	-11.628320	220.00	3	1.100	0.900
85	1	0.00	0.00	0.00	0.00	1	1.0885087	-11.638192	220.00	3	1.100	0.900
86	1	44.15	10.56	0.00	0.00	1	1.0850164	-9.488955	220.00	3	1.100	0.900
87	1	0.00	0.00	0.00	0.00	1	1.0850059	-9.494274	220.00	3	1.100	0.900
88	1	0.00	0.00	0.00	0.00	1	1.0850648	-11.606791	220.00	3	1.100	0.900
89	1	0.00	0.00	0.00	0.00	1	1.0850572	-11.613916	220.00	3	1.100	0.900
90	1	0.00	0.00	0.00	0.00	1	1.0871444	-9.037134	220.00	3	1.100	0.900
91	1	0.00	0.00	0.00	0.00	1	1.0871476	-9.032723	220.00	3	1.100	0.900
92	1	0.00	0.00	0.00	0.00	1	1.0352853	-6.763576	400.00	3	1.100	0.900
93	1	0.00	0.00	0.00	0.00	1	1.0352863	-6.763866	400.00	3	1.100	0.900
94	1	0.00	0.00	0.00	0.00	1	1.0894344	-10.945208	220.00	3	1.100	0.900
95	1	0.00	0.00	0.00	0.00	1	1.0894351	-10.945132	220.00	3	1.100	0.900
96	1	0.00	0.00	0.00	0.00	1	1.0867646	-10.691768	220.00	3	1.100	0.900
97	1	0.00	0.00	0.00	0.00	1	1.0867797	-10.691105	220.00	3	1.100	0.900
98	1	17.11	6.32	0.00	0.00	1	1.0878913	-12.768215	220.00	3	1.100	0.900
99	1	0.00	0.00	0.00	0.00	1	1.0878797	-12.764002	220.00	3	1.100	0.900
100	1	0.00	0.00	0.00	0.00	1	1.0952262	-14.805551	220.00	3	1.100	0.900
101	1	0.00	0.00	0.00	0.00	1	1.0952162	-14.807340	220.00	3	1.100	0.900
102	1	0.00	0.00	0.00	0.00	1	1.0852460	-17.240156	220.00	3	1.100	0.900
103	1	0.00	0.00	0.00	0.00	1	1.0852014	-17.227776	220.00	3	1.100	0.900
104	2	14.00	40.00	0.00	0.00	1	1.0909100	-10.967504	220.00	3	1.100	0.900
105	2	0.00	0.00	0.00	0.00	1	1.0908848	-10.980228	220.00	3	1.100	0.900
106	2	7.00	18.00	0.00	0.00	1	1.0909100	-10.829678	220.00	3	1.100	0.900
107	2	8.00	15.00	0.00	0.00	1	1.0909100	-10.832723	220.00	3	1.100	0.900
108	1	52.73	17.14	0.00	0.00	1	1.0864043	-12.266226	220.00	3	1.100	0.900
109	1	56.44	10.90	0.00	0.00	1	1.0864503	-12.279851	220.00	3	1.100	0.900
110	1	0.00	0.00	0.00	0.00	1	1.0883512	-13.962496	220.00	3	1.100	0.900
111	1	0.00	0.00	0.00	0.00	1	1.0770423	-11.873504	220.00	3	1.100	0.900
112	1	0.00	0.00	0.00	0.00	1	1.0770794	-11.878223	220.00	3	1.100	0.900
113	1	0.00	0.00	0.00	0.00	1	1.0834232	-13.103272	220.00	3	1.100	0.900
114	1	0.00	0.00	0.00	0.00	1	1.0834775	-13.098719	220.00	3	1.100	0.900
115	1	0.00	0.00	0.00	0.00	1	1.0281409	-9.387079	400.00	3	1.100	0.900
116	2	0.00	0.00	0.00	0.00	1	1.0904610	-12.861549	220.00	3	1.100	0.900
117	2	8.00	15.00	0.00	0.00	1	1.0904599	-12.852026	220.00	3	1.100	0.900
118	2	5.50	10.00	0.00	0.00	1	1.0941998	-13.553346	220.00	3	1.100	0.900
119	1	0.00	0.00	0.00	0.00	1	1.0941945	-13.558815	220.00	3	1.100	0.900
120	1	0.00	0.00	0.00	0.00	1	1.0386973	-13.959498	400.00	3	1.100	0.900
121	1	0.00	0.00	0.00	0.00	1	1.0387248	-13.952174	400.00	3	1.100	0.900
122	1	0.00	0.00	0.00	0.00	1	1.0319711	-9.554154	400.00	3	1.100	0.900
123	1	0.00	0.00	0.00	0.00	1	1.0320081	-9.552589	400.00	3	1.100	0.900
124	1	0.00	0.00	0.00	0.00	1	1.0885907	-13.993625	220.00	3	1.100	0.900
125	2	19.21	21.47	0.00	0.00	1	1.0909100	-9.907482	220.00	3	1.100	0.900
126	2	30.67	33.60	0.00	0.00	1	1.0908200	-9.915583	220.00	3	1.100	0.900
127	2	28.00	66.00	0.00	0.00	1	1.0286900	-8.281833	400.00	3	1.100	0.900
128	1	0.00	0.00	0.00	0.00	1	1.0286727	-8.291893	400.00	3	1.100	0.900
129	1	0.00	0.00	0.00	0.00	1	1.0847046	-9.599830	220.00	3	1.100	0.900
130	1	0.00	0.00	0.00	0.00	1	1.0847175	-9.598733	220.00	3	1.100	0.900
131	1	0.00	0.00	0.00	0.00	1	1.0861817	-9.414238	220.00	3	1.100	0.900
132	2	272.00	-62.00	0.00	0.00	1	1.0870664	-18.879840	220.00	3	1.100	0.900
133	2	266.50	-24.80	0.00	0.00	1	1.0849556	-18.864366	220.00	3	1.100	0.900
134	2	14.93	12.88	0.00	0.00	1	1.0880478	-13.818739	220.00	4	1.100	0.900
135	2	8.01	6.53	0.00	0.00	1	1.0879225	-13.827811	220.00	4	1.100	0.900
136	1	0.00	0.00	0.00	0.00	1	1.0797277	-16.784353	220.00	4	1.100	0.900
137	1	0.00	0.00	0.00	0.00	1	1.0841596	-16.300314	220.00	4	1.100	0.900
138	1	0.00	0.00	0.00	0.00	1	1.0407462	-13.831699	400.00	4	1.100	0.900
139	1	0.00	0.00	0.00	0.00	1	1.0407574	-13.827565	400.00	4	1.100	0.900
140	1	0.00	0.00	0.00	0.00	1	1.1023794	-23.253231	220.00	4	1.100	0.900
141	1	0.00	0.00	0.00	0.00	1	1.1011283	-25.851110	220.00	4	1.100	0.900
142	1	0.00	0.00	0.00	0.00	1	1.1011283	-25.851110	220.00	4	1.100	0.900
143	1	0.00	0.00	0.00	0.00	1	1.0959849	-24.333739	220.00	4	1.100	0.900
144	1	0.00	0.00	0.00	0.00	1	1.0874704	-15.430907	220.00	4	1.100	0.900
145	1	0.00	0.00	0.00	0.00	1	1.0874704	-15.430907	220.00	4	1.100	0.900
146	2	55.26	6.96	0.00	0.00	1	1.0901200	-17.412733	220.00	4	1.100	0.900
147	2	10.08	8.40	0.00	0.00	1	1.0901579	-17.422314	220.00	4	1.100	0.900
148	2	11.50	6.86	0.00	0.00	1	1.0988966	-24.954073	220.00	4	1.100	0.900
149	1	4.42	1.35	0.00	0.00	1	1.0988555	-24.968235	220.00	4	1.100	0.900
150	2	12.63	6.83	0.00	0.00	1	1.0324600	-26.621559	400.00	4	1.100	0.900
151	2	12.40	10.05	0.00	0.00	1	1.0324372	-26.627567	400.00	4	1.100	0.900
152	1	0.00	0.00	0.00	0.00	1	1.0893482	-23.300226	220.00	4	1.100	0.900
153	1	0.00	0.00	0.00	0.00	1	1.0868757	-22.345544	220.00	4	1.100	0.900
154	1	0.00	0.00	0.00	0.00	1	1.0869153	-22.339220	220.00	4	1.100	0.900
155	2	33.59	44.98	0.00	0.00	1	1.0909100	-14.600700	220.00	4	1.100	0.900
156	2	33.83	45.07	0.00	0.00	1	1.0909100	-14.674661	220.00	4	1.100	0.900
157	1	0.00	0.00	0.00	0.00	1	1.0909100	-14.600700	220.00	4	1.100	0.900
158	1	0.00	0.00	0.00	0.00	1	1.0339993	-13.607069	400.00	4	1.100	0.900
159	2	8.69	17.49	0.00	0.00	1	1.0339793	-13.604973	400.00	4	1.100	0.900
160	1	0.00	0.00	0.00	0.00	1	1.0999748	-25.902255	220.00	4	1.100	0.900
161	1	0.00	0.00	0.00	0.00	1	1.0999748	-25.902255	220.00	4	1.100	0.900
162	1	0.00	0.00	0.00	0.00	1	1.0423465	-12.971703	400.00	4	1.100	0.900
163	1	0.00	0.00	0.00	0.00	1	1.0406131	-12.029285	400.00	4	1.100	0.900
164	1	0.00	0.00	0.00	0.00	1	1.0406270	-12.035875	400.00	4	1.100	0.900
165	2	5.49	9.59	0.00	0.00	1	1.0908400	-17.668738	220.00	4	1.100	0.900
166	2	10.10	4.89	0.00	0.00	1	1.0908902	-17.686147	220.00	4	1.100	0.900
167	1	14.36	13.62	0.00	0.00	1	1.0908114	-17.670032	220.00	4	1.100	0.900
168	1	0.00	0.00	0.00	0.00	1	1.1104841	-28.866939	220.00	4	1.100	0.900
169	1	0.00	0.00	0.00	0.00	1	1.1040962	-25.946153	220.00	4	1.100	0.900
170	1	0.00	0.00	0.00	0.00	1	1.1097694	-24.260842	220.00	4	1.100	0.900
171	1	0.00	0.00	0.00	0.00	1	1.1096576	-24.259870	220.00	4	1.100	0.900
172	1	0.00	0.00	0.00	0.00	1	0.9669838	-25.379766	400.00	4	1.100	0.900
173	1	0.00	0.00	0.00	0.00	1	0.9669838	-25.379766	400.00	4	1.100	0.900
174	1	0.00	0.00	0.00	0.00	1	1.0708146	-21.586291	220.00	4	1.100	0.900
175	1	0.00	0.00	0.00	0.00	1	1.0708236	-21.584304	220.00	4	1.100	0.900
176	1	0.00	0.00	0.00	0.00	1	1.1080730	-24.495139	220.00	4	1.100	0.900
177	1	0.00	0.00	0.00	0.00	1	1.0837265	-16.213301	220.00	4	1.100	0.900
178	1	0.00	0.00	0.00	0.00	1	1.0837472	-16.208130	220.00	4	1.100	0.900
179	1	0.00	0.00	0.00	0.00	1	1.0854662	-15.155744	220.00	4	1.100	0.900
180	1	0.00	0.00	0.00	0.00	1	1.0854662	-15.155744	220.00	4	1.100	0.900
181	1	0.00	0.00	0.00	0.00	1	1.0695024	-22.404760	220.00	4	1.100	0.900
182	1	0.00	0.00	0.00	0.00	1	1.0542051	-25.406932	220.00	5	1.100	0.900
183	1	0.00	0.00	0.00	0.00	1	1.1205077	-32.492490	220.00	5	1.100	0.900
184	1	0.00	0.00	0.00	0.00	1	1.0393687	-32.119247	400.00	5	1.100	0.900
185	1	0.00	0.00	0.00	0.00	1	1.0393706	-32.112298	400.00	5	1.100	0.900
186	1	0.00	0.00	0.00	0.00	1	1.0274333	-34.405567	400.00	5	1.100	0.900
187	1	0.00	0.00	0.00	0.00	1	1.0274665	-34.413146	400.00	5	1.100	0.900
188	1	0.00	0.00	0.00	0.00	1	1.0822864	-32.645112	220.00	5	1.100	0.900
189	1	0.00	0.00	0.00	0.00	1	1.0823484	-32.648503	220.00	5	1.100	0.900
190	1	0.00	0.00	0.00	0.00	1	1.0547621	-27.562777	220.00	5	1.100	0.900
191	1	0.00	0.00	0.00	0.00	1	1.0548064	-27.560478	220.00	5	1.100	0.900
192	1	0.00	0.00	0.00	0.00	1	1.0033390	-27.070969	400.00	5	1.100	0.900
193	1	0.00	0.00	0.00	0.00	1	1.0608308	-25.002250	220.00	5	1.100	0.900
194	1	0.00	0.00	0.00	0.00	1	1.0608229	-24.999445	220.00	5	1.100	0.900
195	1	0.00	0.00	0.00	0.00	1	1.0245686	-33.559691	400.00	5	1.100	0.900
196	1	0.00	0.00	0.00	0.00	1	1.0245407	-33.557393	400.00	5	1.100	0.900
197	1	0.00	0.00	0.00	0.00	1	1.0637345	-27.447043	220.00	5	1.100	0.900
198	1	0.00	0.00	0.00	0.00	1	1.0636976	-27.440068	220.00	5	1.100	0.900
199	1	0.00	0.00	0.00	0.00	1	1.0396709	-33.648011	400.00	5	1.100	0.900
200	1	0.00	0.00	0.00	0.00	1	1.0396943	-33.635229	400.00	5	1.100	0.900
201	1	0.00	0.00	0.00	0.00	1	1.0410438	-27.264005	220.00	5	1.100	0.900
202	1	0.00	0.00	0.00	0.00	1	1.0410150	-27.257943	220.00	5	1.100	0.900
203	1	0.00	0.00	0.00	0.00	1	1.0409057	-24.787136	220.00	5	1.100	0.900
204	1	0.00	0.00	0.00	0.00	1	1.0408297	-24.801288	220.00	5	1.100	0.900
205	2	619.91	0.00	0.00	0.00	1	1.0325000	-36.664927	400.00	5	1.100	0.900
206	2	205.26	0.00	0.00	0.00	1	1.0325009	-36.663051	400.00	5	1.100	0.900
207	1	0.00	0.00	0.00	0.00	1	1.1084328	-32.863039	220.00	5	1.100	0.900
208	1	0.00	0.00	0.00	0.00	1	1.1084498	-32.866209	220.00	5	1.100	0.900
209	1	5.82	1.50	0.00	0.00	1	1.0773784	-20.131624	110.00	1	1.100	0.900
210	1	4.37	0.50	0.00	0.00	1	1.0685452	-27.803174	110.00	1	1.100	0.900
211	1	7.76	2.00	0.00	0.00	1	1.0613140	-18.857428	110.00	1	1.100	0.900
212	1	6.31	5.60	0.00	0.00	1	1.0149083	-22.272950	110.00	1	1.100	0.900
213	1	2.52	0.60	0.00	0.00	1	1.0389480	-5.116478	110.00	1	1.100	0.900
214	1	4.85	1.30	0.00	0.00	1	1.0567545	-7.734642	110.00	1	1.100	0.900
215	2	19.19	8.00	0.00	0.00	1	1.1072794	-18.342488	110.00	1	1.100	0.900
216	1	14.55	1.50	0.00	0.00	1	1.1064286	-18.536291	110.00	1	1.100	0.900
217	1	4.85	1.00	0.00	0.00	1	1.1065171	-18.500001	110.00	1	1.100	0.900
218	1	4.85	1.00	0.00	0.00	1	1.1061835	-18.617849	110.00	1	1.100	0.900
219	2	8.25	1.60	0.00	0.00	1	1.0460792	-21.697025	110.00	1	1.100	0.900
220	1	5.82	1.50	0.00	0.00	1	1.0472903	-19.946162	110.00	1	1.100	0.900
221	2	0.00	0.00	0.00	0.00	1	1.0648738	-17.067142	110.00	1	1.100	0.900
222	2	6.31	1.50	0.00	0.00	1	1.0676464	-12.049289	110.00	1	1.100	0.900
223	2	15.52	2.60	0.00	0.00	1	1.0554114	-21.069235	110.00	1	1.100	0.900
224	1	1.65	0.40	0.00	0.00	1	1.0279489	-7.143135	110.00	1	1.100	0.900
225	1	2.43	0.20	0.00	0.00	1	1.0620999	-23.770991	110.00	1	1.100	0.900
226	1	2.91	0.50	0.00	0.00	1	1.0871581	-24.279728	110.00	1	1.100	0.900
227	1	10.67	0.50	0.00	0.00	1	1.0950506	-19.507092	110.00	1	1.100	0.900
228	1	6.79	2.00	0.00	0.00	1	1.0540014	-21.582891	110.00	1	1.100	0.900
229	2	2.23	1.05	0.00	0.00	1	1.0636139	-11.847005	110.00	1	1.100	0.900
230	2	2.23	1.05	0.00	0.00	1	1.0639200	-11.849225	110.00	1	1.100	0.900
231	1	11.64	6.00	0.00	0.00	1	1.0452430	-21.280693	110.00	1	1.100	0.900
232	1	4.37	1.00	0.00	0.00	1	1.0577575	-7.624620	110.00	1	1.100	0.900
233	1	8.73	1.00	0.00	0.00	1	1.0601504	-15.229255	110.00	1	1.100	0.900
234	1	16.49	14.00	0.00	0.00	1	1.0358563	-5.816779	110.00	1	1.100	0.900
235	1	3.98	0.50	0.00	0.00	1	1.0612097	-24.299056	110.00	1	1.100	0.900
236	1	8.93	3.64	0.00	0.00	1	1.0656602	-11.155033	110.00	1	1.100	0.900
237	1	4.46	0.30	0.00	0.00	1	1.0605073	-24.341987	110.00	1	1.100	0.900
238	1	5.82	1.00	0.00	0.00	1	1.0781564	-21.595021	110.00	1	1.100	0.900
239	2	4.30	1.17	0.00	0.00	1	1.0455731	-21.710316	110.00	1	1.100	0.900
240	1	7.47	1.00	0.00	0.00	1	1.0517660	-28.234715	110.00	1	1.100	0.900
241	1	4.46	1.67	0.00	0.00	1	1.0663925	-11.348846	110.00	1	1.100	0.900
242	1	6.79	0.70	0.00	0.00	1	1.0986546	-8.931036	110.00	1	1.100	0.900
243	1	0.00	0.00	0.00	0.00	1	1.0987204	-8.908496	110.00	1	1.100	0.900
244	1	2.23	1.40	0.00	0.00	1	1.0800078	-19.191022	110.00	1	1.100	0.900
245	1	0.00	0.00	0.00	0.00	1	1.0412258	-3.493986	110.00	1	1.100	0.900
246	2	1.98	5.00	0.00	0.00	1	1.0350200	0.063034	22.00	1	1.100	0.900
247	1	6.79	1.50	0.00	0.00	1	1.0835724	-25.360095	110.00	1	1.100	0.900
248	1	1.94	0.50	0.00	0.00	1	1.0843785	-26.138965	110.00	1	1.100	0.900
249	1	1.94	0.50	0.00	0.00	1	1.0919267	-24.474225	110.00	1	1.100	0.900
250	1	2.91	0.50	0.00	0.00	1	1.0531183	-29.213022	110.00	1	1.100	0.900
251	1	2.81	0.50	0.00	0.00	1	1.0638218	-21.426297	110.00	1	1.100	0.900
252	1	10.67	7.00	0.00	0.00	1	1.0617793	-16.653264	110.00	1	1.100	0.900
253	1	21.34	5.00	0.00	0.00	1	1.0454268	-21.525517	110.00	1	1.100	0.900
254	1	8.73	2.00	0.00	0.00	1	1.0616563	-29.423671	110.00	1	1.100	0.900
255	1	18.43	1.00	0.00	0.00	1	1.0904065	-23.722508	110.00	1	1.100	0.900
256	1	3.40	0.50	0.00	0.00	1	1.0910786	-23.910502	110.00	1	1.100	0.900
257	1	2.43	0.35	0.00	0.00	1	1.0375395	-4.853336	110.00	1	1.100	0.900
258	1	2.43	0.35	0.00	0.00	1	1.0374765	-4.864225	110.00	1	1.100	0.900
259	1	6.79	2.54	0.00	0.00	1	1.0564845	-12.450467	110.00	1	1.100	0.900
260	1	4.85	1.00	0.00	0.00	1	1.0511495	-29.604752	110.00	1	1.100	0.900
261	1	2.13	0.50	0.00	0.00	1	1.0662975	-19.143116	110.00	1	1.100	0.900
262	1	7.28	1.60	0.00	0.00	1	1.0544421	-18.794173	110.00	1	1.100	0.900
263	1	0.78	0.50	0.00	0.00	1	1.0584524	-25.518658	110.00	1	1.100	0.900
264	1	41.72	37.00	0.00	0.00	1	1.0416136	-3.971624	110.00	1	1.100	0.900
265	1	43.66	40.00	0.00	0.00	1	1.0491165	-7.331377	110.00	1	1.100	0.900
266	1	2.91	1.00	0.00	0.00	1	1.0488335	-20.759149	110.00	1	1.100	0.900
267	1	8.25	0.70	0.00	0.00	1	1.0551620	-21.738568	110.00	1	1.100	0.900
268	1	5.34	1.10	0.00	0.00	1	1.0660944	-21.314102	110.00	1	1.100	0.900
269	1	7.76	1.50	0.00	0.00	1	1.0961820	-19.545888	110.00	1	1.100	0.900
270	1	5.82	1.50	0.00	0.00	1	1.0548398	-28.815856	110.00	1	1.100	0.900
271	1	10.67	2.75	0.00	0.00	1	1.0476036	-19.548171	110.00	1	1.100	0.900
272	1	0.10	0.00	0.00	0.00	1	1.0469386	-21.258299	110.00	1	1.100	0.900
273	1	0.10	0.03	0.00	0.00	1	1.0659644	-18.472477	110.00	1	1.100	0.900
274	1	0.10	0.03	0.00	0.00	1	1.0613473	-19.148843	110.00	1	1.100	0.900
275	1	7.45	3.94	0.00	0.00	1	1.0717312	-10.671411	110.00	1	1.100	0.900
276	1	4.97	2.63	0.00	0.00	1	1.0708746	-11.103162	110.00	1	1.100	0.900
277	1	5.24	1.20	0.00	0.00	1	1.0709416	-11.799555	110.00	1	1.100	0.900
278	1	1.94	0.00	0.00	0.00	1	1.0987009	-19.543074	110.00	1	1.100	0.900
279	1	5.34	0.00	0.00	0.00	1	1.0845275	-21.027577	110.00	1	1.100	0.900
280	1	10.67	3.00	0.00	0.00	1	1.0639271	-19.153924	110.00	1	1.100	0.900
281	1	7.76	1.00	0.00	0.00	1	1.0487542	-20.428000	110.00	1	1.100	0.900
282	1	22.31	21.00	0.00	0.00	1	1.0384151	-6.936001	110.00	1	1.100	0.900
283	1	15.52	13.00	0.00	0.00	1	1.0382085	-6.912885	110.00	1	1.100	0.900
284	1	7.76	3.17	0.00	0.00	1	1.0723790	-10.551897	110.00	1	1.100	0.900
285	1	10.67	1.60	0.00	0.00	1	1.0664349	-11.463612	110.00	1	1.100	0.900
286	1	5.82	0.50	0.00	0.00	1	1.0827872	-23.964858	110.00	1	1.100	0.900
287	1	3.40	0.00	0.00	0.00	1	1.1001424	-20.489891	110.00	1	1.100	0.900
288	1	2.43	0.50	0.00	0.00	1	1.0456024	-21.224587	110.00	1	1.100	0.900
289	1	2.43	0.60	0.00	0.00	1	1.0632403	-14.381957	110.00	1	1.100	0.900
290	1	16.01	6.00	0.00	0.00	1	1.0496549	-20.314064	110.00	1	1.100	0.900
291	2	9.70	1.00	0.00	0.00	1	1.0657830	-18.916361	110.00	1	1.100	0.900
292	1	5.24	1.96	0.00	0.00	1	1.0742331	-10.366973	110.00	1	1.100	0.900
293	1	1.94	1.30	0.00	0.00	1	1.0657863	-19.265506	110.00	1	1.100	0.900
294	2	4.66	0.80	0.00	0.00	1	1.0525366	-22.094124	110.00	1	1.100	0.900
295	1	6.21	0.90	0.00	0.00	1	1.0626896	-14.136810	110.00	1	1.100	0.900
296	1	3.88	2.00	0.00	0.00	1	1.0759181	-11.041333	110.00	1	1.100	0.900
297	1	7.28	2.97	0.00	0.00	1	1.0585863	-11.868754	110.00	1	1.100	0.900
298	1	9.80	3.67	0.00	0.00	1	1.0628228	-11.921409	110.00	1	1.100	0.900
299	2	9.70	3.50	0.00	0.00	1	1.0952761	-19.718678	110.00	1	1.100	0.900
300	1	0.00	0.00	0.00	0.00	1	1.0711302	-11.107321	110.00	1	1.100	0.900
301	1	3.88	0.50	0.00	0.00	1	1.0232276	-7.799159	110.00	1	1.100	0.900
302	1	8.15	3.33	0.00	0.00	1	1.0742640	-10.362168	110.00	1	1.100	0.900
303	1	9.61	3.59	0.00	0.00	1	1.0664110	-11.350516	110.00	1	1.100	0.900
304	1	13.29	4.97	0.00	0.00	1	1.0721411	-10.540118	110.00	1	1.100	0.900
305	1	14.84	5.55	0.00	0.00	1	1.0583893	-11.862425	110.00	1	1.100	0.900
306	2	78.07	52.19	0.00	0.00	1	1.0533201	-11.689354	110.00	1	1.100	0.900
307	2	52.07	20.97	0.00	0.00	1	1.0594389	-11.773826	110.00	1	1.100	0.900
308	2	18.92	9.47	0.00	0.00	1	1.0670000	-11.281379	110.00	1	1.100	0.900
309	1	0.00	0.00	0.00	0.00	1	1.0585197	-11.866496	110.00	1	1.100	0.900
310	2	36.74	19.74	0.00	0.00	1	1.0730300	-10.493072	110.00	1	1.100	0.900
311	2	29.63	16.42	0.00	0.00	1	1.0654034	-11.100074	110.00	1	1.100	0.900
312	1	8.05	0.80	0.00	0.00	1	1.0640712	-13.228753	110.00	1	1.100	0.900
313	1	1.94	0.00	0.00	0.00	1	1.1004875	-19.324478	110.00	1	1.100	0.900
314	1	0.97	0.50	0.00	0.00	1	1.0445190	-21.117758	110.00	1	1.100	0.900
315	1	5.58	0.75	0.00	0.00	1	1.0437656	-21.538474	110.00	1	1.100	0.900
316	1	8.49	1.25	0.00	0.00	1	1.0437256	-21.527813	110.00	1	1.100	0.900
317	1	12.42	3.00	0.00	0.00	1	1.0524467	-19.385955	110.00	1	1.100	0.900
318	1	6.69	2.50	0.00	0.00	1	1.0726103	-10.502822	110.00	1	1.100	0.900
319	2	12.03	4.50	0.00	0.00	1	1.0704213	-10.690660	110.00	1	1.100	0.900
320	1	10.67	2.50	0.00	0.00	1	1.0830585	-21.354920	110.00	1	1.100	0.900
321	1	11.64	4.75	0.00	0.00	1	1.0650732	-11.139449	110.00	1	1.100	0.900
322	1	11.61	4.74	0.00	0.00	1	1.0520504	-11.774060	110.00	1	1.100	0.900
323	1	4.98	2.03	0.00	0.00	1	1.0542374	-11.771503	110.00	1	1.100	0.900
324	1	9.70	2.50	0.00	0.00	1	1.0836457	-21.098559	110.00	1	1.100	0.900
325	1	14.55	3.00	0.00	0.00	1	1.0453934	-22.236669	110.00	1	1.100	0.900
326	1	8.93	3.34	0.00	0.00	1	1.0542853	-11.773749	110.00	1	1.100	0.900
327	1	5.34	1.00	0.00	0.00	1	1.0690673	-11.472729	110.00	1	1.100	0.900
328	1	2.91	0.60	0.00	0.00	1	1.0693326	-11.495023	110.00	1	1.100	0.900
329	1	38.23	14.30	0.00	0.00	1	1.0682224	-10.881303	110.00	1	1.100	0.900
330	1	11.64	1.00	0.00	0.00	1	1.0809855	-16.734157	110.00	1	1.100	0.900
331	1	0.00	0.00	0.00	0.00	1	1.0568127	-12.459739	110.00	1	1.100	0.900
332	1	6.79	2.00	0.00	0.00	1	1.0442595	-22.308589	110.00	1	1.100	0.900
333	1	3.88	0.20	0.00	0.00	1	1.0506166	-29.646664	110.00	1	1.100	0.900
334	1	8.64	3.23	0.00	0.00	1	1.0671668	-11.308377	110.00	1	1.100	0.900
335	1	7.28	1.90	0.00	0.00	1	1.0747902	-21.852206	110.00	1	1.100	0.900
336	1	14.55	4.50	0.00	0.00	1	1.0651974	-18.443332	110.00	1	1.100	0.900
337	1	14.55	4.50	0.00	0.00	1	1.0447928	-19.363052	110.00	1	1.100	0.900
338	1	3.40	0.00	0.00	0.00	1	1.1026490	-19.081805	110.00	1	1.100	0.900
339	1	0.00	0.00	0.00	0.00	1	1.0701238	-18.605089	110.00	1	1.100	0.900
340	1	0.00	0.00	0.00	0.00	1	1.0618935	-19.276881	110.00	1	1.100	0.900
341	1	11.64	3.80	0.00	0.00	1	1.0559749	-19.180179	110.00	1	1.100	0.900
342	1	9.70	2.10	0.00	0.00	1	1.0560781	-19.185745	110.00	1	1.100	0.900
343	1	0.00	0.00	0.00	0.00	1	1.0703294	-18.609334	110.00	1	1.100	0.900
344	1	3.40	0.50	0.00	0.00	1	1.0497720	-31.899218	110.00	1	1.100	0.900
345	2	5.82	1.50	0.00	0.00	1	1.0609184	-20.483576	110.00	1	1.100	0.900
346	1	4.75	0.60	0.00	0.00	1	1.0543360	-27.242671	110.00	1	1.100	0.900
347	1	11.64	4.36	0.00	0.00	1	1.0743424	-10.378310	110.00	1	1.100	0.900
348	1	6.50	1.68	0.00	0.00	1	1.0499856	-19.311645	110.00	1	1.100	0.900
349	1	0.00	0.00	0.00	0.00	1	1.0567662	-19.166869	110.00	1	1.100	0.900
350	1	3.40	1.00	0.00	0.00	1	1.0946546	-21.344513	110.00	1	1.100	0.900
351	1	1.94	0.60	0.00	0.00	1	1.0615500	-19.599111	110.00	1	1.100	0.900
352	1	0.00	0.00	0.00	0.00	1	1.0579918	-19.009007	110.00	1	1.100	0.900
353	1	0.00	0.00	0.00	0.00	1	1.0596089	-18.947684	110.00	1	1.100	0.900
354	1	0.00	0.00	0.00	0.00	1	1.0615253	-19.601509	110.00	1	1.100	0.900
355	1	7.76	2.30	0.00	0.00	1	1.0597998	-19.362508	110.00	1	1.100	0.900
356	1	7.76	1.80	0.00	0.00	1	1.0458672	-21.498858	110.00	1	1.100	0.900
357	1	7.37	0.60	0.00	0.00	1	1.0601732	-20.830745	110.00	1	1.100	0.900
358	1	0.00	0.00	0.00	0.00	1	1.0638309	-18.691135	110.00	1	1.100	0.900
359	1	0.00	0.00	0.00	0.00	1	1.0642106	-18.651220	110.00	1	1.100	0.900
360	1	6.31	1.30	0.00	0.00	1	1.0584820	-15.920390	110.00	1	1.100	0.900
361	1	5.82	1.00	0.00	0.00	1	1.0781533	-19.436982	110.00	1	1.100	0.900
362	2	38.81	15.00	0.00	0.00	1	1.0660141	-21.247536	110.00	1	1.100	0.900
363	2	38.81	16.00	0.00	0.00	1	1.0583163	-20.701338	110.00	1	1.100	0.900
364	2	42.69	12.00	0.00	0.00	1	1.0722239	-20.991227	110.00	1	1.100	0.900
365	2	77.62	22.00	0.00	0.00	1	1.0653996	-19.797381	110.00	1	1.100	0.900
366	1	0.00	0.00	0.00	0.00	1	1.1087803	-18.413234	110.00	1	1.100	0.900
367	1	4.17	0.50	0.00	0.00	1	1.0496444	-22.499711	110.00	1	1.100	0.900
368	2	13.58	0.70	0.00	0.00	1	1.0625648	-24.181323	110.00	1	1.100	0.900
369	1	3.40	1.00	0.00	0.00	1	1.0728353	-26.944979	110.00	1	1.100	0.900
370	1	0.00	0.00	0.00	0.00	1	1.0831029	-21.920329	110.00	1	1.100	0.900
371	1	16.01	7.00	0.00	0.00	1	1.0415550	-21.868334	110.00	1	1.100	0.900
372	1	2.91	0.50	0.00	0.00	1	1.0659049	-11.559744	110.00	1	1.100	0.900
373	1	5.82	1.50	0.00	0.00	1	1.0673663	-12.168041	110.00	1	1.100	0.900
374	1	6.31	1.50	0.00	0.00	1	1.0690625	-26.977650	110.00	1	1.100	0.900
375	1	5.43	0.50	0.00	0.00	1	1.0567998	-26.713331	110.00	1	1.100	0.900
376	1	3.88	0.80	0.00	0.00	1	1.0607004	-15.093940	110.00	1	1.100	0.900
377	1	6.79	1.00	0.00	0.00	1	1.0608077	-15.110261	110.00	1	1.100	0.900
378	1	1.94	0.50	0.00	0.00	1	1.0432664	-21.821425	110.00	1	1.100	0.900
379	1	9.99	2.30	0.00	0.00	1	1.0795861	-19.224450	110.00	1	1.100	0.900
380	1	10.28	1.80	0.00	0.00	1	1.0790210	-19.195155	110.00	1	1.100	0.900
381	1	15.52	3.30	0.00	0.00	1	1.0780722	-21.889118	110.00	1	1.100	0.900
382	2	0.00	9.39	0.00	0.00	1	1.0818200	-18.975935	110.00	1	1.100	0.900
383	2	0.00	0.00	0.00	0.00	1	1.0939148	-21.005521	110.00	1	1.100	0.900
384	1	1.94	0.50	0.00	0.00	1	1.0928089	-22.252313	110.00	1	1.100	0.900
385	1	11.16	2.00	0.00	0.00	1	1.0650034	-19.062360	110.00	1	1.100	0.900
386	2	12.71	4.76	0.00	0.00	1	1.0618931	-12.831452	110.00	1	1.100	0.900
387	1	10.28	1.60	0.00	0.00	1	1.0598748	-19.918672	110.00	1	1.100	0.900
388	1	6.72	3.16	0.00	0.00	1	1.0753332	-10.286502	110.00	1	1.100	0.900
389	1	4.14	1.87	0.00	0.00	1	1.0680690	-11.056831	110.00	1	1.100	0.900
390	1	0.00	0.00	0.00	0.00	1	1.0606103	-7.309674	110.00	1	1.100	0.900
391	1	0.00	0.00	0.00	0.00	1	1.0461461	-3.984348	110.00	1	1.100	0.900
392	1	2.13	0.20	0.00	0.00	1	1.0621702	-20.097718	110.00	1	1.100	0.900
393	1	1.94	0.50	0.00	0.00	1	1.0677089	-20.388036	110.00	1	1.100	0.900
394	1	4.37	1.30	0.00	0.00	1	1.0741991	-12.037285	110.00	1	1.100	0.900
395	2	4.17	0.60	0.00	0.00	1	1.0614746	-20.713687	110.00	1	1.100	0.900
396	1	0.00	0.00	0.00	0.00	1	1.0645506	-19.824140	110.00	1	1.100	0.900
397	1	3.20	0.40	0.00	0.00	1	1.0666777	-21.282387	110.00	1	1.100	0.900
398	1	0.00	0.00	0.00	0.00	1	1.0590224	-21.125156	110.00	1	1.100	0.900
399	1	6.79	1.75	0.00	0.00	1	1.0458763	-20.993874	110.00	1	1.100	0.900
400	1	3.11	0.70	0.00	0.00	1	1.0588371	-16.306077	110.00	1	1.100	0.900
401	1	19.89	5.00	0.00	0.00	1	1.0670349	-19.083157	110.00	1	1.100	0.900
402	1	30.56	5.00	0.00	0.00	1	1.0574479	-18.586871	110.00	1	1.100	0.900
403	1	6.79	1.20	0.00	0.00	1	1.0725426	-8.541558	110.00	1	1.100	0.900
404	1	3.88	1.00	0.00	0.00	1	1.0321244	-6.462127	110.00	1	1.100	0.900
405	1	7.28	1.50	0.00	0.00	1	1.0783394	-25.770214	110.00	1	1.100	0.900
406	1	6.79	1.00	0.00	0.00	1	1.0710780	-8.458767	110.00	1	1.100	0.900
407	1	7.67	0.80	0.00	0.00	1	1.0605485	-20.805529	110.00	1	1.100	0.900
408	1	8.73	1.00	0.00	0.00	1	1.0592202	-17.281531	110.00	1	1.100	0.900
409	1	3.40	0.30	0.00	0.00	1	1.0589819	-21.124458	110.00	1	1.100	0.900
410	1	0.00	0.00	0.00	0.00	1	1.0718288	-21.047295	110.00	1	1.100	0.900
411	1	0.00	0.00	0.00	0.00	1	1.0600266	-20.764892	110.00	1	1.100	0.900
412	1	21.34	7.00	0.00	0.00	1	1.0316704	-6.320972	110.00	1	1.100	0.900
413	1	6.31	1.80	0.00	0.00	1	1.0418729	-21.869867	110.00	1	1.100	0.900
414	1	3.10	0.50	0.00	0.00	1	1.0610339	-20.758645	110.00	1	1.100	0.900
415	1	12.71	1.10	0.00	0.00	1	1.0478657	-21.575740	110.00	1	1.100	0.900
416	1	2.43	0.50	0.00	0.00	1	1.0746354	-12.014456	110.00	1	1.100	0.900
417	1	7.28	1.00	0.00	0.00	1	1.0772931	-19.395458	110.00	1	1.100	0.900
418	1	11.64	3.60	0.00	0.00	1	1.0457953	-19.752938	110.00	1	1.100	0.900
419	1	12.61	3.90	0.00	0.00	1	1.0457512	-19.760329	110.00	1	1.100	0.900
420	1	6.02	3.00	0.00	0.00	1	1.0473755	-20.940481	110.00	1	1.100	0.900
421	2	9.80	2.00	0.00	0.00	1	1.0504229	-20.569873	110.00	1	1.100	0.900
422	1	7.18	0.40	0.00	0.00	1	1.0693749	-23.554813	110.00	1	1.100	0.900
423	1	6.89	0.60	0.00	0.00	1	1.0518072	-21.104364	110.00	1	1.100	0.900
424	1	13.58	2.80	0.00	0.00	1	1.0384711	-21.078614	110.00	1	1.100	0.900
425	1	9.70	2.00	0.00	0.00	1	1.0532513	-20.288109	110.00	1	1.100	0.900
426	2	5.43	2.00	0.00	0.00	1	1.0740238	-10.435386	110.00	1	1.100	0.900